BUILDROOT_OUTPUT_DIR ?= /buildroot/output

CVER     := aarch64-buildroot-linux-gnu-
KVER     := 5.15.148
CPU      := arm64
KDIR     := $(BUILDROOT_OUTPUT_DIR)/build/linux-$(KVER)/
TOOLS    := $(BUILDROOT_OUTPUT_DIR)/host/usr/bin/$(CVER)
MODPATH  := /rootfs
#MODPATH := $(BUILDROOT_OUTPUT_DIR)/target
